 BTK NOAA Ike Track - Holland      ! 32 CHARACTER ALPHANUMERIC RUN DESCRIPTION
 padcirc 50.71                     ! 24 CHARACTER ALPANUMERIC RUN IDENTIFICATION
 1 20.0 1 20 100. ! NFOVER - NONFATAL ERROR OVERRIDE OPTION
 0  ! NABOUT - ABREVIATED OUTPUT OPTION PARAMETER
 -100 ! NSCREEN - UNIT 6 OUTPUT OPTION PARAMETER
 0   ! IHOT - HOT START PARAMETER
 2  ! ICS - COORDINATE SYSTEM SELECTION PARAMETER
 0  ! IM - MODEL SELECTION PARAMETER 
 1  ! NOLIBF - BOTTOM FRICTION TERM SELECTION PARAMETER
 2  ! NOLIFA - FINITE AMPLITUDE TERM SELECTION PARAMETER
 0  ! NOLICA - SPATIAL DERIVATIVE CONVECTIVE SELECTION PARAMETER
 0  ! NOLICAT - TIME DERIVATIVE CONVECTIVE TERM SELECTION PARAMETER
 7  ! NWP - VARIABLE BOTTOM FRICTION AND LATERAL VISCOSITY OPTION PARAMETER
sea_surface_height_above_geoid
primitive_weighting_in_continuity_equation
average_horizontal_eddy_viscosity_in_sea_water_wrt_depth
mannings_n_at_sea_floor
surface_submergence_state
surface_canopy_coefficient
surface_directional_effective_roughness_length
 1  ! NCOR - VARIABLE CORIOLIS IN SPACE OPTION PARAMETER
 1  ! NTIP - TIDAL POTENTIAL OPTION PARAMETER
 12  ! NWS - WIND STRESS AND BAROMETRIC PRESSURE OPTION PARAMETER
 1  ! NRAMP - RAMP FUNCTION OPTION
 9.81  ! G - ACCELERATION DUE TO GRAVITY - DETERMINES UNITS
 -3.0 ! TAU0 - WEIGHTING FACTOR IN GWCE
 1.0  ! DT - TIME STEP (IN SECONDS)
 0.00  ! STATIM - STARTING TIME (IN DAYS)
 0.00   ! REFTIM - REFERENCE TIME (IN DAYS)
900                   ! wtiminc
5.00 ! RNDAY - TOTAL LENGTH OF SIMULATION (IN DAYS)
 0.5  ! DRAMP - DURATION OF RAMP FUNCTION (IN DAYS)
 0.35 0.30 0.35  ! TIME WEIGHTING FACTORS FOR THE GWCE EQUATION
 0.10 0 0 0.01    ! H0, NODEDRYMIN, NODEWETMIN, VELMIN
 265.5 29.0 ! SLAM0,SFEA0 - CENTER OF CPP PROJECTION (NOT USED IF ICS=1, NTIP=0, NCOR=0)
 0.0025  !  FFACTOR,HBREAK,FTHETA,FGAMMA
 50.0 ! ESL - LATERAL EDDY VISCOSITY COEFFICIENT; IGNORED IF NWP =1
 0.0    ! CORI - CORIOLIS PARAMETER - IGNORED IF NCOR = 1
 0      ! NTIF - TOTAL NUMBER OF TIDAL POTENTIAL CONSTITUENTS BE
 1      ! NBFR - TOTAL NUMBER OF FORCING FREQUENCIES ON OPEN BOU
 STEADY ! 
 0.000000000000000  1.00000   000.00
 STEADY ! 
 0.0000 0.0000
 0.0000 0.0000
 0.0000 0.0000
 0.0000 0.0000
 0.0000 0.0000
 0.0000 0.0000
 0.0000 0.0000
 0.0000 0.0000
 0.0000 0.0000
 0.0000 0.0000
 0.0000 0.0000
 0.0000 0.0000
 0.0000 0.0000
 0.0000 0.0000
 0.0000 0.0000
 0.0000 0.0000
 0.0000 0.0000
 0.0000 0.0000
 0.0000 0.0000
 0.0000 0.0000
 0.0000 0.0000
 0.0000 0.0000
 0.0000 0.0000
 0.0000 0.0000
 0.0000 0.0000
 0.0000 0.0000
 0.0000 0.0000
 0.0000 0.0000
 0.0000 0.0000
 0.0000 0.0000
 0.0000 0.0000
 0.0000 0.0000
 0.0000 0.0000
 0.0000 0.0000
 0.0000 0.0000
 0.0000 0.0000
 0.0000 0.0000
 0.0000 0.0000
 0.0000 0.0000
 0.0000 0.0000
 0.0000 0.0000
 0.0000 0.0000
 0.0000 0.0000
 0.0000 0.0000
 0.0000 0.0000
 0.0000 0.0000
 0.0000 0.0000
 0.0000 0.0000
 0.0000 0.0000
 0.0000 0.0000
 0.0000 0.0000
 0.0000 0.0000
 0.0000 0.0000
 0.0000 0.0000
 0.0000 0.0000
 0.0000 0.0000
 0.0000 0.0000
 0.0000 0.0000
 0.0000 0.0000
 0.0000 0.0000
 0.0000 0.0000
 0.0000 0.0000
 0.0000 0.0000
 0.0000 0.0000
 0.0000 0.0000
 0.0000 0.0000
 0.0000 0.0000
 0.0000 0.0000
 0.0000 0.0000
 0.0000 0.0000
 0.0000 0.0000
 0.0000 0.0000
 0.0000 0.0000
 0.0000 0.0000
 0.0000 0.0000
 0.0000 0.0000
 0.0000 0.0000
 0.0000 0.0000
 0.0000 0.0000
 0.0000 0.0000
 0.0000 0.0000
 0.0000 0.0000
 0.0000 0.0000
 0.0000 0.0000
 0.0000 0.0000
 0.0000 0.0000
 0.0000 0.0000
 0.0000 0.0000
 0.0000 0.0000
 0.0000 0.0000
 0.0000 0.0000
 0.0000 0.0000
 0.0000 0.0000
 0.0000 0.0000
 0.0000 0.0000
 0.0000 0.0000
 0.0000 0.0000
 0.0000 0.0000
 0.0000 0.0000
 0.0000 0.0000
 0.0000 0.0000
 0.0000 0.0000
 0.0000 0.0000
 0.0000 0.0000
 0.0000 0.0000
 0.0000 0.0000
 0.0000 0.0000
 0.0000 0.0000
 0.0000 0.0000
 0.0000 0.0000
 0.0000 0.0000
 0.0000 0.0000
 0.0000 0.0000
 0.0000 0.0000
 0.0000 0.0000
 0.0000 0.0000
 0.0000 0.0000
 0.0000 0.0000
 0.0000 0.0000
 0.0000 0.0000
 0.0000 0.0000
 0.0000 0.0000
 0.0000 0.0000
 0.0000 0.0000
 0.0000 0.0000
 0.0000 0.0000
 0.0000 0.0000
 0.0000 0.0000
 0.0000 0.0000
 0.0000 0.0000
 0.0000 0.0000
 0.0000 0.0000
 0.0000 0.0000
 0.0000 0.0000
 0.0000 0.0000
 0.0000 0.0000
 0.0000 0.0000
 0.0000 0.0000
 0.0000 0.0000
 0.0000 0.0000
 0.0000 0.0000
 0.0000 0.0000
 0.0000 0.0000
 0.0000 0.0000
 0.0000 0.0000
 0.0000 0.0000
 0.0000 0.0000
 0.0000 0.0000
 0.0000 0.0000
 0.0000 0.0000
 0.0000 0.0000
 0.0000 0.0000
 0.0000 0.0000
 0.0000 0.0000
 0.0000 0.0000
 0.0000 0.0000
 0.0000 0.0000
 0.0000 0.0000
 0.0000 0.0000
 0.0000 0.0000
 0.0000 0.0000
 0.0000 0.0000
 0.0000 0.0000
 0.0000 0.0000
 0.0000 0.0000
 0.0000 0.0000
 0.0000 0.0000
 0.0000 0.0000
 0.0000 0.0000
 0.0000 0.0000
 0.0000 0.0000
 0.0000 0.0000
 0.0000 0.0000
 0.0000 0.0000
 0.0000 0.0000
 0.0000 0.0000
 0.0000 0.0000
 0.0000 0.0000
 0.0000 0.0000
 0.0000 0.0000
 0.0000 0.0000
 0.0000 0.0000
 0.0000 0.0000
 0.0000 0.0000
 0.0000 0.0000
 0.0000 0.0000
 0.0000 0.0000
 0.0000 0.0000
 0.0000 0.0000
 0.0000 0.0000
 0.0000 0.0000
 0.0000 0.0000
 0.0000 0.0000
 0.0000 0.0000
 0.0000 0.0000
 0.0000 0.0000
 0.0000 0.0000
 0.0000 0.0000
 0.0000 0.0000
 0.0000 0.0000
 0.0000 0.0000
 0.0000 0.0000
 0.0000 0.0000
 0.0000 0.0000
 0.0000 0.0000
 0.0000 0.0000
 0.0000 0.0000
 0.0000 0.0000
 0.0000 0.0000
 0.0000 0.0000
 0.0000 0.0000
 0.0000 0.0000
 0.0000 0.0000
 0.0000 0.0000
 0.0000 0.0000
 0.0000 0.0000
 0.0000 0.0000
 0.0000 0.0000
 0.0000 0.0000
 0.0000 0.0000
 0.0000 0.0000
 0.0000 0.0000
 0.0000 0.0000
 0.0000 0.0000
 0.0000 0.0000
 0.0000 0.0000
 0.0000 0.0000
 0.0000 0.0000
 0.0000 0.0000
 0.0000 0.0000
 0.0000 0.0000
 0.0000 0.0000
 0.0000 0.0000
 0.0000 0.0000
 0.0000 0.0000
 0.0000 0.0000
 0.0000 0.0000
 0.0000 0.0000
 0.0000 0.0000
 0.0000 0.0000
 0.0000 0.0000
 0.0000 0.0000
 0.0000 0.0000
 0.0000 0.0000
 0.0000 0.0000
 0.0000 0.0000
 0.0000 0.0000
 0.0000 0.0000
 0.0000 0.0000
 0.0000 0.0000
 0.0000 0.0000
 0.0000 0.0000
 0.0000 0.0000
 0.0000 0.0000
 0.0000 0.0000
 0.0000 0.0000
 0.0000 0.0000
 0.0000 0.0000
 0.0000 0.0000
 0.0000 0.0000
 0.0000 0.0000
 0.0000 0.0000
 0.0000 0.0000
 0.0000 0.0000
 0.0000 0.0000
 0.0000 0.0000
 0.0000 0.0000
 0.0000 0.0000
 0.0000 0.0000
 0.0000 0.0000
 0.0000 0.0000
 0.0000 0.0000
 0.0000 0.0000
 0.0000 0.0000
 0.0000 0.0000
 0.0000 0.0000
 0.0000 0.0000
 0.0000 0.0000
 0.0000 0.0000
 0.0000 0.0000
 0.0000 0.0000
 0.0000 0.0000
 0.0000 0.0000
 0.0000 0.0000
 0.0000 0.0000
 0.0000 0.0000
 0.0000 0.0000
 0.0000 0.0000
 0.0000 0.0000
 0.0000 0.0000
 0.0000 0.0000
 0.0000 0.0000
 110.0 ! ANGINN : INNER ANGLE THRESHOLD
1 0.0 10.0 1200 ! NOUTE,TOUTSE,TOUTFE,NSPOOLE:ELEV STATION OUTPUT INFO (UNIT  61)
1250                                  ! TOTAL NUMBER OF ELEVATION RECORDING STATIONS
-102.229527	31.935621	!	1	Substation_id_1
-104.355838	29.566231	!	2	Substation_id_2
-101.666478	33.006636	!	3	Substation_id_3
-101.388018	32.207292	!	4	Substation_id_4
-104.832280	31.030986	!	5	Substation_id_5
-102.201727	30.931672	!	6	Substation_id_6
-104.334449	29.592865	!	7	Substation_id_7
-102.402865	30.141946	!	8	Substation_id_8
-103.097404	31.451014	!	9	Substation_id_9
-103.035347	31.184669	!	10	Substation_id_10
-104.016942	30.312293	!	11	Substation_id_11
-101.531450	31.765968	!	12	Substation_id_12
-102.391347	31.798804	!	13	Substation_id_13
-102.597164	31.716449	!	14	Substation_id_14
-102.124845	31.996484	!	15	Substation_id_15
-101.135880	31.982549	!	16	Substation_id_16
-101.584256	32.927924	!	17	Substation_id_17
-102.636420	31.975054	!	18	Substation_id_18
-101.278877	32.025119	!	19	Substation_id_19
-102.138914	32.378315	!	20	Substation_id_20
-101.246423	32.951610	!	21	Substation_id_21
-102.077136	31.992964	!	22	Substation_id_22
-103.117458	29.711941	!	23	Substation_id_23
-103.653935	31.042281	!	24	Substation_id_24
-102.277324	31.221464	!	25	Substation_id_25
-101.273236	32.003544	!	26	Substation_id_26
-102.523235	31.095542	!	27	Substation_id_27
-102.495508	31.813037	!	28	Substation_id_28
-102.469122	30.755469	!	29	Substation_id_29
-102.645819	32.293250	!	30	Substation_id_30
-101.396090	32.124034	!	31	Substation_id_31
-101.172288	31.128107	!	32	Substation_id_32
-102.175755	32.038572	!	33	Substation_id_33
-101.199740	30.719172	!	34	Substation_id_34
-102.962583	31.584423	!	35	Substation_id_35
-101.596812	32.561557	!	36	Substation_id_36
-101.835065	32.967563	!	37	Substation_id_37
-101.818990	32.211213	!	38	Substation_id_38
-101.934946	30.895724	!	39	Substation_id_39
-101.422736	32.274294	!	40	Substation_id_40
-102.251892	32.036103	!	41	Substation_id_41
-101.452334	32.100302	!	42	Substation_id_42
-101.412180	32.091816	!	43	Substation_id_43
-101.884897	31.438456	!	44	Substation_id_44
-102.109702	30.915995	!	45	Substation_id_45
-102.327402	31.838633	!	46	Substation_id_46
-102.365992	30.818423	!	47	Substation_id_47
-102.713734	30.701887	!	48	Substation_id_48
-101.301694	31.956677	!	49	Substation_id_49
-103.144510	31.762258	!	50	Substation_id_50
-103.619839	31.788129	!	51	Substation_id_51
-101.778673	30.663542	!	52	Substation_id_52
-102.223219	31.153619	!	53	Substation_id_53
-102.137734	32.896460	!	54	Substation_id_54
-102.833514	31.997628	!	55	Substation_id_55
-101.451653	33.651437	!	56	Substation_id_56
-95.450342	33.664097	!	57	Substation_id_57
-96.368131	33.628929	!	58	Substation_id_58
-95.905498	33.598400	!	59	Substation_id_59
-100.533680	34.719829	!	60	Substation_id_60
-98.685997	33.953938	!	61	Substation_id_61
-99.773972	33.944397	!	62	Substation_id_62
-101.359448	35.254890	!	63	Substation_id_63
-100.889142	34.391712	!	64	Substation_id_64
-97.465260	33.350154	!	65	Substation_id_65
-96.847000	33.625940	!	66	Substation_id_66
-101.256343	35.414855	!	67	Substation_id_67
-98.498569	33.939384	!	68	Substation_id_68
-95.555778	33.693919	!	69	Substation_id_69
-98.476930	33.843747	!	70	Substation_id_70
-100.815411	35.751668	!	71	Substation_id_71
-95.345781	33.516033	!	72	Substation_id_72
-98.438380	33.914867	!	73	Substation_id_73
-101.313208	34.464289	!	74	Substation_id_74
-96.235694	33.588739	!	75	Substation_id_75
-100.322521	33.626505	!	76	Substation_id_76
-95.557455	33.697979	!	77	Substation_id_77
-96.243520	33.383102	!	78	Substation_id_78
-96.850810	33.830510	!	79	Substation_id_79
-99.801023	33.584350	!	80	Substation_id_80
-98.542222	33.904662	!	81	Substation_id_81
-97.363859	33.647827	!	82	Substation_id_82
-96.258252	33.554679	!	83	Substation_id_83
-97.825232	33.561197	!	84	Substation_id_84
-95.053948	33.617878	!	85	Substation_id_85
-101.561866	35.382788	!	86	Substation_id_86
-96.848698	33.753118	!	87	Substation_id_87
-97.005860	33.633015	!	88	Substation_id_88
-98.511757	33.978895	!	89	Substation_id_89
-96.677615	33.795377	!	90	Substation_id_90
-96.411204	33.601861	!	91	Substation_id_91
-100.991550	33.750399	!	92	Substation_id_92
-99.145024	34.084247	!	93	Substation_id_93
-95.636908	33.516210	!	94	Substation_id_94
-98.260380	33.834035	!	95	Substation_id_95
-100.889980	34.939739	!	96	Substation_id_96
-97.953835	33.509365	!	97	Substation_id_97
-98.485624	33.897266	!	98	Substation_id_98
-101.239218	35.486582	!	99	Substation_id_99
-95.698297	33.632537	!	100	Substation_id_100
-99.368483	34.294164	!	101	Substation_id_101
-96.592026	33.758926	!	102	Substation_id_102
-95.698049	33.634272	!	103	Substation_id_103
-97.157995	33.681705	!	104	Substation_id_104
-100.226386	33.139519	!	105	Substation_id_105
-98.484621	33.790538	!	106	Substation_id_106
-98.361210	33.510979	!	107	Substation_id_107
-96.710536	33.400233	!	108	Substation_id_108
-98.564598	33.509621	!	109	Substation_id_109
-96.863694	33.627093	!	110	Substation_id_110
-100.377855	32.748686	!	111	Substation_id_111
-97.426727	33.719704	!	112	Substation_id_112
-100.299264	34.005212	!	113	Substation_id_113
-97.954344	33.862970	!	114	Substation_id_114
-96.175148	33.574312	!	115	Substation_id_115
-98.589600	33.862132	!	116	Substation_id_116
-97.790916	33.569991	!	117	Substation_id_117
-100.664770	33.359804	!	118	Substation_id_118
-98.521094	33.538607	!	119	Substation_id_119
-94.977324	33.352879	!	120	Substation_id_120
-99.254571	33.594662	!	121	Substation_id_121
-96.545044	33.741630	!	122	Substation_id_122
-101.539382	35.382100	!	123	Substation_id_123
-101.387387	33.659937	!	124	Substation_id_124
-96.615018	33.578156	!	125	Substation_id_125
-96.391810	33.509303	!	126	Substation_id_126
-96.605566	33.575194	!	127	Substation_id_127
-99.671019	33.324549	!	128	Substation_id_128
-98.613631	34.097046	!	129	Substation_id_129
-97.434051	33.662224	!	130	Substation_id_130
-98.765328	33.547216	!	131	Substation_id_131
-98.238730	34.012691	!	132	Substation_id_132
-95.587893	33.631373	!	133	Substation_id_133
-95.506150	33.665989	!	134	Substation_id_134
-96.158853	33.633660	!	135	Substation_id_135
-101.372859	35.443057	!	136	Substation_id_136
-96.643782	33.422804	!	137	Substation_id_137
-97.047591	33.494606	!	138	Substation_id_138
-97.182936	33.486851	!	139	Substation_id_139
-100.541350	35.620261	!	140	Substation_id_140
-96.327448	33.429422	!	141	Substation_id_141
-99.580590	33.079946	!	142	Substation_id_142
-97.526024	33.689474	!	143	Substation_id_143
-99.173137	30.030130	!	144	Substation_id_144
-100.351137	32.437936	!	145	Substation_id_145
-99.762144	29.681073	!	146	Substation_id_146
-100.121304	32.889294	!	147	Substation_id_147
-100.118006	32.492763	!	148	Substation_id_148
-99.642249	31.739435	!	149	Substation_id_149
-100.655775	30.567664	!	150	Substation_id_150
-100.022548	29.664202	!	151	Substation_id_151
-98.963212	30.738387	!	152	Substation_id_152
-98.738486	30.432663	!	153	Substation_id_153
-99.700197	32.358388	!	154	Substation_id_154
-98.457908	30.679210	!	155	Substation_id_155
-100.442919	32.457181	!	156	Substation_id_156
-100.256464	32.212011	!	157	Substation_id_157
-100.630761	31.118555	!	158	Substation_id_158
-99.605490	33.001277	!	159	Substation_id_159
-100.914321	32.333206	!	160	Substation_id_160
-99.868727	32.855109	!	161	Substation_id_161
-100.596617	30.860717	!	162	Substation_id_162
-98.690213	31.192174	!	163	Substation_id_163
-99.537729	32.635647	!	164	Substation_id_164
-98.390809	31.215348	!	165	Substation_id_165
-100.321210	31.529098	!	166	Substation_id_166
-99.759394	32.299728	!	167	Substation_id_167
-99.836569	32.387397	!	168	Substation_id_168
-100.998957	32.706905	!	169	Substation_id_169
-99.119051	30.894673	!	170	Substation_id_170
-99.195213	31.537989	!	171	Substation_id_171
-100.666041	32.469967	!	172	Substation_id_172
-99.944537	31.741176	!	173	Substation_id_173
-100.680092	32.050991	!	174	Substation_id_174
-100.495210	32.285873	!	175	Substation_id_175
-99.876737	32.737081	!	176	Substation_id_176
-101.139455	29.747458	!	177	Substation_id_177
-99.576241	30.333243	!	178	Substation_id_178
-100.028154	32.193530	!	179	Substation_id_179
-100.911288	31.910864	!	180	Substation_id_180
-100.487353	32.242061	!	181	Substation_id_181
-99.336216	31.155541	!	182	Substation_id_182
-100.231811	32.449726	!	183	Substation_id_183
-99.790030	32.203261	!	184	Substation_id_184
-100.115322	32.299335	!	185	Substation_id_185
-100.178120	31.593378	!	186	Substation_id_186
-100.198143	29.268313	!	187	Substation_id_187
-99.538220	30.872320	!	188	Substation_id_188
-100.392285	29.324611	!	189	Substation_id_189
-99.776333	32.368170	!	190	Substation_id_190
-100.692511	32.579691	!	191	Substation_id_191
-100.207592	32.328221	!	192	Substation_id_192
-100.745957	32.445104	!	193	Substation_id_193
-99.639709	32.554558	!	194	Substation_id_194
-100.201807	30.021217	!	195	Substation_id_195
-100.023508	32.199051	!	196	Substation_id_196
-101.129603	32.952607	!	197	Substation_id_197
-99.844875	32.437873	!	198	Substation_id_198
-99.770865	32.546905	!	199	Substation_id_199
-98.481403	30.826123	!	200	Substation_id_200
-99.682409	32.582637	!	201	Substation_id_201
-100.176979	32.269558	!	202	Substation_id_202
-98.385601	30.731445	!	203	Substation_id_203
-99.336044	30.076141	!	204	Substation_id_204
-98.054010	31.091360	!	205	Substation_id_205
-101.222438	32.945946	!	206	Substation_id_206
-100.827029	31.940758	!	207	Substation_id_207
-100.496765	31.343775	!	208	Substation_id_208
-100.453771	32.839239	!	209	Substation_id_209
-100.824619	32.733328	!	210	Substation_id_210
-100.391997	29.323941	!	211	Substation_id_211
-100.596730	32.497783	!	212	Substation_id_212
-100.024079	29.188158	!	213	Substation_id_213
-98.888186	30.265874	!	214	Substation_id_214
-99.721334	32.449963	!	215	Substation_id_215
-99.646034	29.288640	!	216	Substation_id_216
-100.457132	32.244628	!	217	Substation_id_217
-100.727169	32.378503	!	218	Substation_id_218
-100.648043	32.398727	!	219	Substation_id_219
-100.993619	31.911043	!	220	Substation_id_220
-99.974077	32.300553	!	221	Substation_id_221
-99.836216	31.215750	!	222	Substation_id_222
-100.955043	32.747027	!	223	Substation_id_223
-100.193465	32.433059	!	224	Substation_id_224
-100.194852	30.695938	!	225	Substation_id_225
-100.293392	31.891400	!	226	Substation_id_226
-99.882538	32.092516	!	227	Substation_id_227
-100.419889	32.337920	!	228	Substation_id_228
-100.252449	31.419303	!	229	Substation_id_229
-99.197809	31.536375	!	230	Substation_id_230
-99.918072	31.506245	!	231	Substation_id_231
-100.183995	32.837588	!	232	Substation_id_232
-100.054903	30.171417	!	233	Substation_id_233
-98.183967	31.084570	!	234	Substation_id_234
-100.849173	29.373285	!	235	Substation_id_235
-98.315306	26.359604	!	236	Substation_id_236
-99.530076	27.635871	!	237	Substation_id_237
-98.997908	27.321317	!	238	Substation_id_238
-98.254747	26.201446	!	239	Substation_id_239
-98.609954	29.038249	!	240	Substation_id_240
-97.528779	27.103218	!	241	Substation_id_241
-98.928581	27.084093	!	242	Substation_id_242
-97.942266	26.137579	!	243	Substation_id_243
-98.179115	26.270685	!	244	Substation_id_244
-100.215117	28.638449	!	245	Substation_id_245
-98.702223	28.856100	!	246	Substation_id_246
-97.291873	27.649037	!	247	Substation_id_247
-97.339849	28.253406	!	248	Substation_id_248
-97.823837	26.231299	!	249	Substation_id_249
-97.502209	27.688562	!	250	Substation_id_250
-98.010383	26.292703	!	251	Substation_id_251
-99.477493	27.692184	!	252	Substation_id_252
-98.862777	28.915644	!	253	Substation_id_253
-98.474307	28.704006	!	254	Substation_id_254
-98.251600	26.160628	!	255	Substation_id_255
-97.212580	28.716822	!	256	Substation_id_256
-99.419359	27.313855	!	257	Substation_id_257
-97.855072	27.492232	!	258	Substation_id_258
-99.490130	27.523681	!	259	Substation_id_259
-98.255524	26.111829	!	260	Substation_id_260
-97.610851	27.849904	!	261	Substation_id_261
-99.607968	28.862859	!	262	Substation_id_262
-97.512602	28.030867	!	263	Substation_id_263
-97.743208	28.397121	!	264	Substation_id_264
-98.366383	26.235177	!	265	Substation_id_265
-98.154921	26.125744	!	266	Substation_id_266
-99.019161	26.522681	!	267	Substation_id_267
-99.164042	26.557393	!	268	Substation_id_268
-98.451601	26.245264	!	269	Substation_id_269
-97.599343	26.321508	!	270	Substation_id_270
-97.886136	27.530644	!	271	Substation_id_271
-97.789569	26.927196	!	272	Substation_id_272
-97.642400	28.026512	!	273	Substation_id_273
-97.418374	27.820900	!	274	Substation_id_274
-97.257566	27.888903	!	275	Substation_id_275
-97.496738	27.809904	!	276	Substation_id_276
-98.008214	26.154844	!	277	Substation_id_277
-97.698197	26.222208	!	278	Substation_id_278
-98.083796	26.304252	!	279	Substation_id_279
-97.485481	27.796780	!	280	Substation_id_280
-97.375575	25.964481	!	281	Substation_id_281
-97.405568	27.784436	!	282	Substation_id_282
-98.397785	26.206609	!	283	Substation_id_283
-97.383378	27.731760	!	284	Substation_id_284
-98.351215	26.321111	!	285	Substation_id_285
-97.312987	27.607642	!	286	Substation_id_286
-97.466177	26.195586	!	287	Substation_id_287
-97.271372	27.679262	!	288	Substation_id_288
-98.194450	26.139331	!	289	Substation_id_289
-97.887569	26.228415	!	290	Substation_id_290
-97.684730	27.975436	!	291	Substation_id_291
-97.452137	27.766211	!	292	Substation_id_292
-99.276012	27.578804	!	293	Substation_id_293
-97.519721	26.001451	!	294	Substation_id_294
-98.140273	26.406031	!	295	Substation_id_295
-97.472868	27.969674	!	296	Substation_id_296
-97.299652	26.094705	!	297	Substation_id_297
-98.097847	26.167737	!	298	Substation_id_298
-97.216861	27.872087	!	299	Substation_id_299
-97.397400	27.708462	!	300	Substation_id_300
-97.174567	26.138362	!	301	Substation_id_301
-97.734332	26.219096	!	302	Substation_id_302
-97.810194	27.318500	!	303	Substation_id_303
-99.508404	27.568723	!	304	Substation_id_304
-98.469774	28.700306	!	305	Substation_id_305
-98.198733	28.251067	!	306	Substation_id_306
-99.095505	26.543858	!	307	Substation_id_307
-97.421717	27.745750	!	308	Substation_id_308
-97.785635	26.087197	!	309	Substation_id_309
-98.237938	26.271981	!	310	Substation_id_310
-97.382449	27.659181	!	311	Substation_id_311
-98.163813	26.890132	!	312	Substation_id_312
-98.023721	28.739861	!	313	Substation_id_313
-97.477891	25.994569	!	314	Substation_id_314
-98.068886	27.687413	!	315	Substation_id_315
-98.609914	26.515020	!	316	Substation_id_316
-98.597782	27.365379	!	317	Substation_id_317
-98.617408	27.845262	!	318	Substation_id_318
-99.092409	28.927422	!	319	Substation_id_319
-97.861593	28.160387	!	320	Substation_id_320
-97.789223	27.332078	!	321	Substation_id_321
-99.201911	28.680513	!	322	Substation_id_322
-97.961408	27.918959	!	323	Substation_id_323
-97.424632	27.909474	!	324	Substation_id_324
-99.411725	27.327549	!	325	Substation_id_325
-98.518917	28.459297	!	326	Substation_id_326
-97.064209	28.046723	!	327	Substation_id_327
-97.452204	27.734628	!	328	Substation_id_328
-97.583835	27.002726	!	329	Substation_id_329
-98.396865	26.221102	!	330	Substation_id_330
-98.576840	26.410861	!	331	Substation_id_331
-97.354507	27.704766	!	332	Substation_id_332
-98.292819	26.269138	!	333	Substation_id_333
-97.427003	27.814298	!	334	Substation_id_334
-98.634805	26.306470	!	335	Substation_id_335
-97.774388	27.092027	!	336	Substation_id_336
-97.752233	26.481646	!	337	Substation_id_337
-97.444419	27.811434	!	338	Substation_id_338
-97.823880	28.112163	!	339	Substation_id_339
-97.071876	27.820542	!	340	Substation_id_340
-97.641751	26.142250	!	341	Substation_id_341
-98.484726	28.947910	!	342	Substation_id_342
-96.989995	28.209551	!	343	Substation_id_343
-98.804173	29.250703	!	344	Substation_id_344
-99.009081	27.486607	!	345	Substation_id_345
-98.920153	27.563767	!	346	Substation_id_346
-97.670773	28.380596	!	347	Substation_id_347
-98.251234	27.743720	!	348	Substation_id_348
-97.142161	27.725328	!	349	Substation_id_349
-97.329869	27.986748	!	350	Substation_id_350
-97.715439	26.467098	!	351	Substation_id_351
-99.233829	26.932836	!	352	Substation_id_352
-97.781722	26.437555	!	353	Substation_id_353
-99.258027	28.414795	!	354	Substation_id_354
-100.550531	28.866846	!	355	Substation_id_355
-99.535871	28.565268	!	356	Substation_id_356
-99.466314	27.576212	!	357	Substation_id_357
-97.691080	26.476026	!	358	Substation_id_358
-97.522320	25.913694	!	359	Substation_id_359
-98.438023	28.990375	!	360	Substation_id_360
-97.613408	26.277484	!	361	Substation_id_361
-96.674219	32.907220	!	362	Substation_id_362
-96.296916	32.124404	!	363	Substation_id_363
-97.869092	32.412708	!	364	Substation_id_364
-96.800969	32.976463	!	365	Substation_id_365
-97.105220	33.248558	!	366	Substation_id_366
-99.224646	32.712261	!	367	Substation_id_367
-96.765829	32.867443	!	368	Substation_id_368
-96.665649	33.012206	!	369	Substation_id_369
-96.511167	31.303928	!	370	Substation_id_370
-97.161785	33.215194	!	371	Substation_id_371
-98.955220	31.706288	!	372	Substation_id_372
-97.528699	33.312624	!	373	Substation_id_373
-97.282372	32.930152	!	374	Substation_id_374
-97.260048	33.219406	!	375	Substation_id_375
-98.339676	33.044362	!	376	Substation_id_376
-97.478333	32.749071	!	377	Substation_id_377
-97.746485	31.439240	!	378	Substation_id_378
-97.523312	32.313815	!	379	Substation_id_379
-97.347646	32.647825	!	380	Substation_id_380
-97.417515	32.673503	!	381	Substation_id_381
-97.063595	32.818615	!	382	Substation_id_382
-97.261064	31.129639	!	383	Substation_id_383
-97.705594	32.887983	!	384	Substation_id_384
-96.505101	33.192669	!	385	Substation_id_385
-96.802616	32.743952	!	386	Substation_id_386
-96.646095	32.641186	!	387	Substation_id_387
-96.350774	32.969252	!	388	Substation_id_388
-97.549112	33.027593	!	389	Substation_id_389
-98.191072	32.262837	!	390	Substation_id_390
-97.195032	32.490862	!	391	Substation_id_391
-96.125837	33.170288	!	392	Substation_id_392
-96.775499	33.100532	!	393	Substation_id_393
-96.541278	31.521180	!	394	Substation_id_394
-98.611097	33.134508	!	395	Substation_id_395
-96.140784	32.242643	!	396	Substation_id_396
-97.124012	32.768791	!	397	Substation_id_397
-96.871634	32.777685	!	398	Substation_id_398
-97.119855	31.559806	!	399	Substation_id_399
-96.779284	33.011602	!	400	Substation_id_400
-99.304840	31.739670	!	401	Substation_id_401
-96.793292	33.203124	!	402	Substation_id_402
-98.118552	31.682353	!	403	Substation_id_403
-96.159813	32.816585	!	404	Substation_id_404
-96.993320	33.278154	!	405	Substation_id_405
-97.132338	31.526021	!	406	Substation_id_406
-97.260379	31.291848	!	407	Substation_id_407
-97.766541	31.132511	!	408	Substation_id_408
-97.083448	32.680073	!	409	Substation_id_409
-96.674995	33.148236	!	410	Substation_id_410
-96.883126	32.678104	!	411	Substation_id_411
-97.156409	32.711022	!	412	Substation_id_412
-96.982208	32.183527	!	413	Substation_id_413
-97.371539	31.864598	!	414	Substation_id_414
-96.769024	32.840872	!	415	Substation_id_415
-96.811575	32.021367	!	416	Substation_id_416
-97.186165	32.265948	!	417	Substation_id_417
-97.350469	33.030907	!	418	Substation_id_418
-96.755934	32.297873	!	419	Substation_id_419
-97.009710	33.066025	!	420	Substation_id_420
-96.613823	33.005194	!	421	Substation_id_421
-97.096543	32.818940	!	422	Substation_id_422
-97.439959	32.595664	!	423	Substation_id_423
-97.075333	33.014200	!	424	Substation_id_424
-96.765525	32.774159	!	425	Substation_id_425
-98.605482	31.894207	!	426	Substation_id_426
-96.743975	32.962432	!	427	Substation_id_427
-97.286076	32.644787	!	428	Substation_id_428
-96.992196	32.908070	!	429	Substation_id_429
-96.959570	32.649036	!	430	Substation_id_430
-96.726178	32.558540	!	431	Substation_id_431
-98.425415	32.873575	!	432	Substation_id_432
-96.848274	32.956099	!	433	Substation_id_433
-97.867242	31.952655	!	434	Substation_id_434
-97.310694	33.324443	!	435	Substation_id_435
-96.314078	32.539565	!	436	Substation_id_436
-96.230565	33.069793	!	437	Substation_id_437
-96.831102	33.058790	!	438	Substation_id_438
-97.254403	32.674959	!	439	Substation_id_439
-99.194243	32.383617	!	440	Substation_id_440
-98.002673	33.096859	!	441	Substation_id_441
-98.973686	31.718776	!	442	Substation_id_442
-96.688614	32.835413	!	443	Substation_id_443
-96.890513	31.294478	!	444	Substation_id_444
-97.078644	32.763987	!	445	Substation_id_445
-96.741801	32.911177	!	446	Substation_id_446
-97.816731	31.785028	!	447	Substation_id_447
-96.857729	32.749064	!	448	Substation_id_448
-98.418976	31.662522	!	449	Substation_id_449
-96.753955	33.003930	!	450	Substation_id_450
-97.476293	31.061377	!	451	Substation_id_451
-97.870887	32.410243	!	452	Substation_id_452
-98.903248	32.747409	!	453	Substation_id_453
-98.636510	32.498527	!	454	Substation_id_454
-95.670591	33.456267	!	455	Substation_id_455
-97.107607	31.445499	!	456	Substation_id_456
-96.899741	32.930957	!	457	Substation_id_457
-97.708688	31.414579	!	458	Substation_id_458
-96.491199	33.294277	!	459	Substation_id_459
-97.334415	31.397317	!	460	Substation_id_460
-97.191676	32.763415	!	461	Substation_id_461
-97.179282	31.577443	!	462	Substation_id_462
-96.993739	32.729687	!	463	Substation_id_463
-96.532531	32.962389	!	464	Substation_id_464
-96.806395	33.061281	!	465	Substation_id_465
-97.005395	32.867564	!	466	Substation_id_466
-96.710836	32.908374	!	467	Substation_id_467
-98.373775	33.202842	!	468	Substation_id_468
-97.658626	31.930411	!	469	Substation_id_469
-96.612076	32.957766	!	470	Substation_id_470
-97.686196	33.024693	!	471	Substation_id_471
-97.373832	32.153436	!	472	Substation_id_472
-98.702019	32.731066	!	473	Substation_id_473
-98.978503	31.913452	!	474	Substation_id_474
-96.857886	32.609231	!	475	Substation_id_475
-96.618441	32.775542	!	476	Substation_id_476
-96.980456	31.074130	!	477	Substation_id_477
-97.072044	33.229044	!	478	Substation_id_478
-96.687560	32.799281	!	479	Substation_id_479
-96.964473	31.574745	!	480	Substation_id_480
-97.544925	31.087113	!	481	Substation_id_481
-97.107426	33.197625	!	482	Substation_id_482
-96.891802	32.865168	!	483	Substation_id_483
-98.465751	32.331084	!	484	Substation_id_484
-96.892501	32.058154	!	485	Substation_id_485
-97.787246	32.757959	!	486	Substation_id_486
-96.733993	33.060364	!	487	Substation_id_487
-97.017899	31.897472	!	488	Substation_id_488
-97.088596	33.158569	!	489	Substation_id_489
-98.257841	32.939799	!	490	Substation_id_490
-97.130853	32.656172	!	491	Substation_id_491
-96.429172	32.857780	!	492	Substation_id_492
-96.516873	32.089592	!	493	Substation_id_493
-96.614138	32.921344	!	494	Substation_id_494
-97.737975	31.471940	!	495	Substation_id_495
-96.912754	32.950418	!	496	Substation_id_496
-97.452698	32.772967	!	497	Substation_id_497
-97.455172	33.076245	!	498	Substation_id_498
-97.072776	32.443950	!	499	Substation_id_499
-98.988320	33.287425	!	500	Substation_id_500
-96.859681	33.060254	!	501	Substation_id_501
-96.782199	32.796089	!	502	Substation_id_502
-98.420255	32.517252	!	503	Substation_id_503
-97.675381	31.949478	!	504	Substation_id_504
-97.899627	31.112855	!	505	Substation_id_505
-96.912365	32.661318	!	506	Substation_id_506
-97.158536	33.161732	!	507	Substation_id_507
-98.372434	33.203111	!	508	Substation_id_508
-97.335136	32.762743	!	509	Substation_id_509
-98.100010	32.804192	!	510	Substation_id_510
-96.637191	31.745955	!	511	Substation_id_511
-96.470210	32.105372	!	512	Substation_id_512
-96.832917	33.007366	!	513	Substation_id_513
-97.909802	33.058934	!	514	Substation_id_514
-97.731650	32.074916	!	515	Substation_id_515
-97.147315	32.852673	!	516	Substation_id_516
-96.800248	31.856472	!	517	Substation_id_517
-96.736815	32.456019	!	518	Substation_id_518
-96.663432	32.872401	!	519	Substation_id_519